12
Properties=species:S:1:pos:R:3:tags:I:1:test:I:1 pbc="F F F"
C       -0.70400000      -1.21940000      -0.00000000        0        0
C        0.70400000      -1.21940000      -0.00000000        0        1
C       -1.40810000      -0.00000000      -0.00000000        0        2
C        1.40810000       0.00000000       0.00000000        0        3
C       -0.70400000       1.21940000       0.00000000        0        4
C        0.70400000       1.21940000      -0.00000000        0        5
H       -1.21520000      -2.10480000      -0.00000000        0        6
H        1.21520000      -2.10480000       0.00000000        0        7
H       -2.43040000      -0.00000000       0.00000000        0        8
H        2.43040000       0.00000000       0.00000000        0        9
H       -1.21520000       2.10480000      -0.00000000        0       10
H        1.21520000       2.10480000       0.00000000        0       11
